Version 4
SHEET 1 880 680
WIRE 544 -208 512 -208
WIRE 608 -208 544 -208
WIRE 768 -208 608 -208
WIRE 544 -176 544 -208
WIRE 608 -176 608 -208
WIRE 544 -80 544 -96
WIRE 544 -80 512 -80
WIRE 608 -80 608 -112
WIRE 608 -80 544 -80
WIRE 48 -32 -160 -32
WIRE 256 -32 192 -32
WIRE 256 -16 256 -32
WIRE 48 80 48 -32
WIRE 256 80 256 64
WIRE 544 112 544 -80
WIRE 0 160 -64 160
WIRE 192 160 192 -32
WIRE -160 176 -160 -32
WIRE 160 176 112 176
WIRE 768 176 768 -208
WIRE 256 192 224 192
WIRE 352 192 256 192
WIRE 496 192 432 192
WIRE 48 208 48 176
WIRE 160 208 48 208
WIRE 256 224 256 192
WIRE 192 240 192 224
WIRE 48 288 48 208
WIRE 112 320 112 176
WIRE 256 320 256 288
WIRE 256 320 112 320
WIRE 352 320 256 320
WIRE 544 320 544 208
WIRE 544 320 432 320
WIRE -64 336 -64 160
WIRE 256 352 256 320
WIRE 544 352 544 320
WIRE -160 464 -160 256
WIRE -64 464 -64 416
WIRE -64 464 -160 464
WIRE 48 464 48 368
WIRE 48 464 -64 464
WIRE 256 464 256 432
WIRE 256 464 48 464
WIRE 544 464 544 432
WIRE 544 464 256 464
WIRE 768 464 768 256
WIRE 768 464 544 464
WIRE 544 496 544 464
FLAG 544 496 0
FLAG 192 240 0
FLAG 512 -80 Velectrode
FLAG 112 176 Vin
FLAG 256 80 0
FLAG 544 320 V3
FLAG 512 -208 Vcase
FLAG 48 -32 Vdac
FLAG -64 160 Vpwm
SYMBOL nmos 496 112 R0
SYMATTR InstName M1
SYMATTR Value Si9410DY
SYMBOL res 448 176 R90
WINDOW 0 0 56 VBottom 2
WINDOW 3 32 56 VTop 2
SYMATTR InstName R1
SYMATTR Value 100
SYMBOL cap 240 224 R0
WINDOW 3 42 32 Left 2
SYMATTR InstName C1
SYMATTR Value 100p
SYMBOL res 448 304 R90
WINDOW 0 0 56 VBottom 2
WINDOW 3 32 56 VTop 2
SYMATTR InstName R2
SYMATTR Value 1k
SYMBOL res 528 -192 R0
WINDOW 0 -76 33 Left 2
WINDOW 3 -58 65 Left 2
SYMATTR InstName Rload
SYMATTR Value 1.5k
SYMBOL voltage 768 160 R0
WINDOW 123 0 0 Left 2
WINDOW 39 0 0 Left 2
SYMATTR InstName V1
SYMATTR Value 15
SYMBOL Opamps\\LT1492 192 128 R0
WINDOW 3 -92 -2 Left 2
SYMATTR InstName U1
SYMBOL res 240 336 R0
SYMATTR InstName R5
SYMATTR Value 1k
SYMBOL res 528 336 R0
SYMATTR InstName R3
SYMATTR Value 1k
SYMBOL voltage 256 -32 R0
WINDOW 123 0 0 Left 2
WINDOW 39 0 0 Left 2
SYMATTR InstName V3
SYMATTR Value 10
SYMBOL nmos 0 80 R0
WINDOW 3 -103 40 Left 2
SYMATTR InstName M2
SYMATTR Value Si9410DY
SYMBOL voltage -160 160 R0
WINDOW 3 24 44 Left 2
WINDOW 123 0 0 Left 2
WINDOW 39 0 0 Left 2
SYMATTR InstName V2
SYMATTR Value 1
SYMBOL voltage -64 320 R0
WINDOW 3 -96 -512 Left 2
WINDOW 123 0 0 Left 2
WINDOW 39 0 0 Left 2
SYMATTR InstName V4
SYMATTR Value PULSE(0 3.3 0 10n 10n 150u 50m 20)
SYMBOL res 32 272 R0
SYMATTR InstName R4
SYMATTR Value 100k
SYMBOL cap 592 -176 R0
SYMATTR InstName C2
SYMATTR Value 1pF
TEXT -160 -128 Left 2 !.tran 1
