Version 4
SHEET 1 1172 680
WIRE -688 -384 -816 -384
WIRE -688 -368 -688 -384
WIRE -816 -352 -816 -384
WIRE -816 -240 -816 -288
WIRE -816 -240 -880 -240
WIRE -736 -240 -816 -240
WIRE -624 -240 -656 -240
WIRE -624 -192 -624 -240
WIRE -816 -128 -816 -240
WIRE -752 -128 -816 -128
WIRE -432 -128 -496 -128
WIRE -336 -128 -432 -128
WIRE -240 -128 -336 -128
WIRE 208 -128 -240 -128
WIRE 416 -128 208 -128
WIRE 464 -128 416 -128
WIRE -432 -112 -432 -128
WIRE -336 -96 -336 -128
WIRE -240 -96 -240 -128
WIRE 416 -96 416 -128
WIRE 464 -96 464 -128
WIRE -816 -16 -816 -128
WIRE -752 -16 -816 -16
WIRE -432 -16 -432 -32
WIRE -432 -16 -496 -16
WIRE -336 -16 -336 -32
WIRE -336 -16 -432 -16
WIRE 48 -16 -144 -16
WIRE -432 0 -432 -16
WIRE 416 0 416 -32
WIRE 416 0 352 0
WIRE 464 0 464 -16
WIRE 464 0 416 0
WIRE -880 80 -880 -240
WIRE 48 80 48 -16
WIRE 464 112 464 0
WIRE 0 160 -48 160
WIRE 208 160 208 -128
WIRE -144 176 -144 -16
WIRE 176 176 128 176
WIRE 320 192 240 192
WIRE 416 192 320 192
WIRE 48 208 48 176
WIRE 176 208 48 208
WIRE 320 240 320 192
WIRE 208 256 208 224
WIRE 48 288 48 208
WIRE -48 336 -48 160
WIRE 128 352 128 176
WIRE 320 352 320 304
WIRE 320 352 128 352
WIRE 464 352 464 208
WIRE 464 352 320 352
WIRE 464 384 464 352
WIRE -880 496 -880 160
WIRE -624 496 -624 48
WIRE -624 496 -880 496
WIRE -432 496 -432 80
WIRE -432 496 -624 496
WIRE -240 496 -240 -32
WIRE -240 496 -432 496
WIRE -144 496 -144 256
WIRE -144 496 -240 496
WIRE -48 496 -48 416
WIRE -48 496 -144 496
WIRE 48 496 48 368
WIRE 48 496 -48 496
WIRE 464 496 464 464
WIRE 464 496 48 496
WIRE 464 528 464 496
FLAG 464 528 0
FLAG 208 256 0
FLAG 352 0 Velectrode
FLAG 128 176 Vin
FLAG 464 -128 Vcase
FLAG 48 -16 Vdac
FLAG -48 160 Vpwm
FLAG -880 -240 IN
FLAG -688 -368 0
SYMBOL cap 304 240 R0
WINDOW 3 42 32 Left 2
SYMATTR Value 100p
SYMATTR InstName C1
SYMBOL LT1492 208 128 R0
WINDOW 3 -92 -2 Left 2
SYMATTR InstName U1
SYMBOL res 448 368 R0
WINDOW 0 -28 35 Left 2
WINDOW 3 -42 74 Left 2
SYMATTR InstName R3
SYMATTR Value 2
SYMBOL voltage -144 160 R0
WINDOW 3 36 100 Left 2
WINDOW 123 0 0 Left 2
WINDOW 39 0 0 Left 2
SYMATTR Value 1.4
SYMATTR InstName V2
SYMBOL voltage -48 320 R0
WINDOW 3 -444 -569 Left 2
WINDOW 123 0 0 Left 2
WINDOW 39 0 0 Left 2
SYMATTR Value PULSE(0 3.3 5m 10n 10n 150u 10m 6)
SYMATTR InstName V4
SYMBOL res 32 272 R0
WINDOW 0 -25 28 Left 2
WINDOW 3 48 56 Left 2
SYMATTR InstName R4
SYMATTR Value 1k
SYMBOL cap 400 -96 R0
WINDOW 0 -51 -7 Left 2
WINDOW 3 -25 59 Left 2
SYMATTR InstName Cload
SYMATTR Value 10p
SYMBOL res 448 -112 R0
WINDOW 3 33 84 Left 2
SYMATTR Value 1Meg
SYMATTR InstName Rload
SYMBOL LTC3459 -624 -80 R0
SYMATTR InstName U2
SYMBOL ind -752 -224 R270
WINDOW 0 32 56 VTop 2
WINDOW 3 5 56 VBottom 2
SYMATTR InstName L1
SYMATTR Value 33µ
SYMBOL res -448 -128 R0
SYMATTR InstName R1
SYMATTR Value 2Meg
SYMBOL res -448 -16 R0
SYMATTR InstName R2
SYMATTR Value 280k
SYMBOL voltage -880 64 R0
WINDOW 123 0 0 Left 2
WINDOW 39 0 0 Left 2
SYMATTR InstName V5
SYMATTR Value 3.7
SYMBOL cap -256 -96 R0
SYMATTR InstName C2
SYMATTR Value 4.7µ
SYMBOL cap -352 -96 R0
SYMATTR InstName C3
SYMATTR Value 47p
SYMBOL nmos 416 112 R0
SYMATTR InstName M3
SYMATTR Value DMN1019UFDE
SYMATTR Prefix X
SYMBOL nmos 0 80 R0
SYMATTR InstName M2
SYMATTR Value DMN1019UFDE
SYMATTR Prefix X
SYMBOL cap -832 -352 R0
SYMATTR InstName C4
SYMATTR Value 1µ
TEXT -48 -248 Left 2 !.tran 0.1 startup
TEXT -864 600 Left 2 !.inc "/Users/calebburton/Documents/GitHub/DAPhNe-Stimulator-System/Datasheets and Software/SPICE/DMN1019UFDE.txt"
